6 Bus Output.txt
Newton_Raphson_test
                   Power Flow Solution by Newton-Raphson Method
                      Maximum Power Mismatch = 1.04705e-05 
                             No. of Iterations = 3 

    Bus  Voltage  Angle    ------Load------    ---Generation---   Injected
    No.  Mag.     Degree     MW       Mvar       MW       Mvar       Mvar 
                                                                          
     1   1.050    0.000     0.000     0.000     0.687    -1.521     0.000
     2   1.027   -0.012     1.000     0.100     0.000     0.000     0.000
     3   1.031    0.035     0.000     0.000     1.500     0.750     0.000
     4   1.020    0.067     0.450     0.200     0.000   -10.784     0.000
     5   1.025    0.006     0.400     0.250     0.000     0.000     0.000
     6   1.015    0.010     0.300     0.100     0.000     0.000     0.000
      
    Total                   2.150     0.650     2.187   -11.555     0.000


                           Line Flow and Losses 

     --Line--  Power at bus & line flow    --Line loss--  Transformer
     from  to    MW      Mvar     MVA       MW      Mvar      tap
   
     1          0.687   -1.521    1.668
           3    0.631    5.301    5.339    0.015   -2.054
           2    0.056   -6.821    6.821    0.000    0.186    1.050
   
     2         -1.000   -0.100    1.005
           3   -0.747   -3.089    3.178    0.001   -2.110
           1   -0.056    7.007    7.008    0.000    0.186
           6   -0.197   -4.018    4.023    0.000    0.032    1.020
   
     3          1.500    0.750    1.677
           1   -0.616   -7.355    7.381    0.015   -2.054
           2    0.749    0.979    1.232    0.001   -2.110
           4    0.580    4.761    4.796    0.010   -2.040
           5    0.787    2.365    2.493    0.003   -2.090
   
     4         -0.450  -10.984   10.994
           3   -0.570   -6.801    6.825    0.010   -2.040
           5    0.120   -4.182    4.184    0.003   -2.076
   
     5         -0.400   -0.250    0.472
           3   -0.784   -4.455    4.524    0.003   -2.090
           4   -0.118    2.107    2.110    0.003   -2.076
           6    0.502    2.099    2.158    0.005   -2.051
   
     6         -0.300   -0.100    0.316
           5   -0.497   -4.150    4.180    0.005   -2.051
           2    0.197    4.050    4.055    0.000    0.032
   
    Total loss                             0.037  -12.203
diary off
